9

C         -2.83200        0.47100       -0.01100
C         -1.38800        0.95500       -0.02000
H         -2.89800       -0.52000       -0.50900
H         -3.47900        1.19000       -0.55700
H         -3.19400        0.37400        1.03400
H         -1.00600        1.02600       -1.06400
H         -0.75000        0.22000        0.51500
O         -1.28300        2.19300        0.62700
H         -1.59900        2.87900       -0.01800
